Info: SIMULATION PARAMETERS:
Info: TIMESTEP               2
Info: NUMBER OF STEPS        0
Info: STEPS PER CYCLE        10
Info: PERIODIC CELL BASIS 1  25.376 0 0
Info: PERIODIC CELL BASIS 2  0 22.772 0
Info: PERIODIC CELL BASIS 3  0 0 22.008
Info: PERIODIC CELL CENTER   0 0 0
Info: WRAPPING WATERS AROUND PERIODIC BOUNDARIES ON OUTPUT.
Info: WRAPPING ALL CLUSTERS AROUND PERIODIC BOUNDARIES ON OUTPUT.
Info: FIRST LDB TIMESTEP     50
Info: LAST LDB TIMESTEP     -1
Info: HOM BACKGROUND SCALING 1
Info: PME BACKGROUND SCALING 1
Info: MIN ATOMS PER PATCH    40
Info: INITIAL TEMPERATURE    50
Info: CENTER OF MASS MOVING INITIALLY? NO
Info: DIELECTRIC             1
Info: EXCLUDE                SCALED ONE-FOUR
Info: 1-4 ELECTROSTATICS SCALED BY 0.833333
Info: MODIFIED 1-4 VDW PARAMETERS WILL BE USED
Info: NO DCD TRAJECTORY OUTPUT
Info: NO EXTENDED SYSTEM TRAJECTORY OUTPUT
Info: NO VELOCITY DCD OUTPUT
Info: NO FORCE DCD OUTPUT
Info: OUTPUT FILENAME        ../simulation/eq0
Info: NO RESTART FILE
Info: SWITCHING ACTIVE
Info: SWITCHING ON           10
Info: SWITCHING OFF          12
Info: PAIRLIST DISTANCE      13.5
Info: PAIRLIST SHRINK RATE   0.01
Info: PAIRLIST GROW RATE     0.01
Info: PAIRLIST TRIGGER       0.3
Info: PAIRLISTS PER CYCLE    2
Info: PAIRLISTS ENABLED
Info: MARGIN                 0
Info: HYDROGEN GROUP CUTOFF  2.5
Info: PATCH DIMENSION        16
Info: ENERGY OUTPUT STEPS    500
Info: CROSSTERM ENERGY INCLUDED IN DIHEDRAL
Info: TIMING OUTPUT STEPS    5000
Info: PRESSURE OUTPUT STEPS  500
Info: PARTICLE MESH EWALD (PME) ACTIVE
Info: PME TOLERANCE               1e-06
Info: PME EWALD COEFFICIENT       0.257952
Info: PME INTERPOLATION ORDER     4
Info: PME GRID DIMENSIONS         28 24 24
Info: PME MAXIMUM GRID SPACING    1
Info: FULL ELECTROSTATIC EVALUATION FREQUENCY      2
Info: USING VERLET I (r-RESPA) MTS SCHEME.
Info: C1 SPLITTING OF LONG RANGE ELECTROSTATICS
Info: PLACING ATOMS IN PATCHES BY HYDROGEN GROUPS
Info: RIGID BONDS TO HYDROGEN : ALL
Info:         ERROR TOLERANCE : 1e-05
Info:          MAX ITERATIONS : 100
Info: RIGID WATER USING SETTLE ALGORITHM
Info: RANDOM NUMBER SEED     1414057043
Info: USE HYDROGEN BONDS?    NO
Info: Using AMBER format force field!
Info: AMBER PARM FILE        ../build/mol-solv.top
Info: COORDINATE PDB         ../build/mol-solv.pdb
Info: Exclusions in PARM file will be ignored!
Info: SCNB (VDW SCALING)     2
Info: USING ARITHMETIC MEAN TO COMBINE L-J SIGMA PARAMETERS
Info: SUMMARY OF PARAMETERS:
Info: 14 BONDS
Info: 23 ANGLES
Info: 14 DIHEDRAL
Info: 0 IMPROPER
Info: 0 CROSSTERM
Info: 0 VDW
Info: 55 VDW_PAIRS
Info: 0 NBTHOLE_PAIRS
Info: STRUCTURE SUMMARY:
Info: 1103 ATOMS
Info: 1102 BONDS
Info: 39 ANGLES
Info: 62 DIHEDRALS
Info: 0 IMPROPERS
Info: 0 CROSSTERMS
Info: 0 EXCLUSIONS
Info: 1092 RIGID BONDS
Info: 2214 DEGREES OF FREEDOM
Info: 371 HYDROGEN GROUPS
Info: 4 ATOMS IN LARGEST HYDROGEN GROUP
Info: 371 MIGRATION GROUPS
Info: 4 ATOMS IN LARGEST MIGRATION GROUP
Info: TOTAL MASS = 6645.94 amu
Info: TOTAL CHARGE = 4.09782e-08 e
Info: MASS DENSITY = 0.867782 g/cm^3
Info: ATOM DENSITY = 0.0867302 atoms/A^3
Info: REMOVING COM VELOCITY -0.0587177 -0.0228108 0.0676441
Info: NONBONDED TABLE R-SQUARED SPACING: 0.0625
Info: NONBONDED TABLE SIZE: 769 POINTS
TCL: Minimizing for 2000 steps
ETITLE: TS BOND ANGLE DIHED IMPRP ELECT VDW BOUNDARY MISC KINETIC TOTAL TEMP POTENTIAL TOTAL3 TEMPAVG PRESSURE GPRESSURE VOLUME PRESSAVG GPRESSAVG
ENERGY: 0 6.2996 2.9293 7.8418 0.0000 -3217.2659 95052.5991 0.0000 0.0000 0.0000 91852.4038 0.0000 91852.4038 91852.4038 0.0000 2089729.6057 2074929.5340 12717.5929 2089729.6057 2074929.5340
ENERGY: 400 292.7245 2.8553 6.2102 0.0000 -5249.8782 686.8239 0.0000 0.0000 0.0000 -4261.2644 0.0000 -4261.2644 -4261.2644 0.0000 -5878.6635 -6869.6554 12717.5929 -5878.6635 -6869.6554
ENERGY: 800 333.6733 1.9067 3.9947 0.0000 -5673.9798 840.7660 0.0000 0.0000 0.0000 -4493.6391 0.0000 -4493.6391 -4493.6391 0.0000 -5584.8993 -5741.1977 12717.5929 -5584.8993 -5741.1977
ENERGY: 1200 345.4337 1.5158 4.7174 0.0000 -5823.6181 892.2186 0.0000 0.0000 0.0000 -4579.7325 0.0000 -4579.7325 -4579.7325 0.0000 -5186.5344 -5190.6100 12717.5929 -5186.5344 -5190.6100
ENERGY: 1600 350.3140 1.5640 4.2321 0.0000 -5862.8682 898.1755 0.0000 0.0000 0.0000 -4608.5825 0.0000 -4608.5825 -4608.5825 0.0000 -5534.3201 -5258.3977 12717.5929 -5534.3201 -5258.3977
ENERGY: 2000 351.0368 1.5583 4.7134 0.0000 -5894.4144 912.7272 0.0000 0.0000 0.0000 -4624.3787 0.0000 -4624.3787 -4624.3787 0.0000 -5016.5620 -5079.6675 12717.5929 -5016.5620 -5079.6675
