Info: SIMULATION PARAMETERS:
Info: TIMESTEP               2
Info: NUMBER OF STEPS        0
Info: STEPS PER CYCLE        10
Info: PERIODIC CELL BASIS 1  25.376 0 0
Info: PERIODIC CELL BASIS 2  0 22.772 0
Info: PERIODIC CELL BASIS 3  0 0 22.008
Info: PERIODIC CELL CENTER   0 0 0
Info: WRAPPING WATERS AROUND PERIODIC BOUNDARIES ON OUTPUT.
Info: WRAPPING ALL CLUSTERS AROUND PERIODIC BOUNDARIES ON OUTPUT.
Info: FIRST LDB TIMESTEP     50
Info: LAST LDB TIMESTEP     -1
Info: HOM BACKGROUND SCALING 1
Info: PME BACKGROUND SCALING 1
Info: MIN ATOMS PER PATCH    40
Info: INITIAL TEMPERATURE    50
Info: CENTER OF MASS MOVING INITIALLY? NO
Info: DIELECTRIC             1
Info: EXCLUDE                SCALED ONE-FOUR
Info: 1-4 ELECTROSTATICS SCALED BY 0.833333
Info: MODIFIED 1-4 VDW PARAMETERS WILL BE USED
Info: DCD FILENAME           ../simulation/sim0.dcd
Info: DCD FREQUENCY          1000
Info: DCD FIRST STEP         1000
Info: DCD FILE WILL CONTAIN UNIT CELL DATA
Info: XST FILENAME           ../simulation/sim0.xst
Info: XST FREQUENCY          500
Info: NO VELOCITY DCD OUTPUT
Info: NO FORCE DCD OUTPUT
Info: OUTPUT FILENAME        ../simulation/sim0
Info: RESTART FILENAME       ../simulation/sim0.restart
Info: RESTART FREQUENCY      10000
Info: BINARY RESTART FILES WILL BE USED
Info: SWITCHING ACTIVE
Info: SWITCHING ON           10
Info: SWITCHING OFF          12
Info: PAIRLIST DISTANCE      13.5
Info: PAIRLIST SHRINK RATE   0.01
Info: PAIRLIST GROW RATE     0.01
Info: PAIRLIST TRIGGER       0.3
Info: PAIRLISTS PER CYCLE    2
Info: PAIRLISTS ENABLED
Info: MARGIN                 0
Info: HYDROGEN GROUP CUTOFF  2.5
Info: PATCH DIMENSION        16
Info: ENERGY OUTPUT STEPS    500
Info: CROSSTERM ENERGY INCLUDED IN DIHEDRAL
Info: TIMING OUTPUT STEPS    5000
Info: PRESSURE OUTPUT STEPS  500
Info: VELOCITY REASSIGNMENT FREQ  100
Info: VELOCITY REASSIGNMENT TEMP  50
Info: VELOCITY REASSIGNMENT INCR  5
Info: VELOCITY REASSIGNMENT HOLD  300
Info: PARTICLE MESH EWALD (PME) ACTIVE
Info: PME TOLERANCE               1e-06
Info: PME EWALD COEFFICIENT       0.257952
Info: PME INTERPOLATION ORDER     4
Info: PME GRID DIMENSIONS         28 24 24
Info: PME MAXIMUM GRID SPACING    1
Info: FULL ELECTROSTATIC EVALUATION FREQUENCY      2
Info: USING VERLET I (r-RESPA) MTS SCHEME.
Info: C1 SPLITTING OF LONG RANGE ELECTROSTATICS
Info: PLACING ATOMS IN PATCHES BY HYDROGEN GROUPS
Info: RIGID BONDS TO HYDROGEN : ALL
Info:         ERROR TOLERANCE : 1e-05
Info:          MAX ITERATIONS : 100
Info: RIGID WATER USING SETTLE ALGORITHM
Info: RANDOM NUMBER SEED     1414057118
Info: USE HYDROGEN BONDS?    NO
Info: Using AMBER format force field!
Info: AMBER PARM FILE        ../build/mol-solv.top
Info: COORDINATE PDB         ../simulation/eq0.coor
Info: Exclusions in PARM file will be ignored!
Info: SCNB (VDW SCALING)     2
Info: USING ARITHMETIC MEAN TO COMBINE L-J SIGMA PARAMETERS
Info: SUMMARY OF PARAMETERS:
Info: 14 BONDS
Info: 23 ANGLES
Info: 14 DIHEDRAL
Info: 0 IMPROPER
Info: 0 CROSSTERM
Info: 0 VDW
Info: 55 VDW_PAIRS
Info: 0 NBTHOLE_PAIRS
Info: STRUCTURE SUMMARY:
Info: 1103 ATOMS
Info: 1102 BONDS
Info: 39 ANGLES
Info: 62 DIHEDRALS
Info: 0 IMPROPERS
Info: 0 CROSSTERMS
Info: 0 EXCLUSIONS
Info: 1092 RIGID BONDS
Info: 2214 DEGREES OF FREEDOM
Info: 371 HYDROGEN GROUPS
Info: 4 ATOMS IN LARGEST HYDROGEN GROUP
Info: 371 MIGRATION GROUPS
Info: 4 ATOMS IN LARGEST MIGRATION GROUP
Info: TOTAL MASS = 6645.94 amu
Info: TOTAL CHARGE = 4.09782e-08 e
Info: MASS DENSITY = 0.867782 g/cm^3
Info: ATOM DENSITY = 0.0867302 atoms/A^3
Info: REMOVING COM VELOCITY 0.00135989 0.0816267 -0.120803
Info: NONBONDED TABLE R-SQUARED SPACING: 0.0625
Info: NONBONDED TABLE SIZE: 769 POINTS
TCL: Running for 10000 steps
ETITLE: TS BOND ANGLE DIHED IMPRP ELECT VDW BOUNDARY MISC KINETIC TOTAL TEMP POTENTIAL TOTAL3 TEMPAVG PRESSURE GPRESSURE VOLUME PRESSAVG GPRESSAVG
ENERGY: 0 0.5317 1.5466 4.7121 0.0000 -5191.7998 914.7389 0.0000 0.0000 112.1331 -4158.1374 50.9738 -4270.2705 -4158.1124 50.9738 -403.7317 -369.2374 12717.5929 -403.7317 -369.2374
ENERGY: 2000 1.7550 6.0735 5.0569 0.0000 -4771.4350 693.2338 0.0000 0.0000 313.1514 -3752.1643 142.3532 -4065.3157 -3747.3576 128.3944 -2330.1095 -2289.1842 12717.5929 -2753.9209 -2753.6611
ENERGY: 4000 3.4592 9.4505 7.1571 0.0000 -4403.2411 599.1865 0.0000 0.0000 549.3925 -3234.5953 249.7442 -3783.9878 -3212.8057 224.2797 -2233.9528 -2131.4426 12717.5929 -1752.7637 -1752.3979
ENERGY: 6000 1.5788 11.6991 5.4255 0.0000 -4008.2296 512.9771 0.0000 0.0000 671.0621 -2805.4870 305.0531 -3476.5490 -2812.4232 294.8933 -782.7300 -747.3980 12717.5929 -1267.9755 -1267.6857
ENERGY: 8000 2.0838 6.6339 7.4125 0.0000 -3998.9334 485.7939 0.0000 0.0000 679.6808 -2817.3285 308.9710 -3497.0093 -2800.8530 301.8873 -1867.7215 -1823.5707 12717.5929 -1235.9533 -1236.1478
ENERGY: 10000 3.3932 10.7051 7.0266 0.0000 -4035.4771 518.7068 0.0000 0.0000 656.1031 -2839.5423 298.2530 -3495.6453 -2851.4690 297.1355 -1280.3643 -1237.2927 12717.5929 -1184.4367 -1184.3941
