Info: SIMULATION PARAMETERS:
Info: TIMESTEP               2
Info: NUMBER OF STEPS        0
Info: STEPS PER CYCLE        10
Info: PERIODIC CELL BASIS 1  25.376 0 0
Info: PERIODIC CELL BASIS 2  0 22.772 0
Info: PERIODIC CELL BASIS 3  0 0 22.008
Info: PERIODIC CELL CENTER   0 0 0
Info: WRAPPING WATERS AROUND PERIODIC BOUNDARIES ON OUTPUT.
Info: WRAPPING ALL CLUSTERS AROUND PERIODIC BOUNDARIES ON OUTPUT.
Info: FIRST LDB TIMESTEP     50
Info: LAST LDB TIMESTEP     -1
Info: HOM BACKGROUND SCALING 1
Info: PME BACKGROUND SCALING 1
Info: MIN ATOMS PER PATCH    40
Info: VELOCITY FILE          ../simulation/sim0.vel
Info: CENTER OF MASS MOVING INITIALLY? NO
Info: DIELECTRIC             1
Info: EXCLUDE                SCALED ONE-FOUR
Info: 1-4 ELECTROSTATICS SCALED BY 0.833333
Info: MODIFIED 1-4 VDW PARAMETERS WILL BE USED
Info: DCD FILENAME           ../simulation/sim1.dcd
Info: DCD FREQUENCY          1000
Info: DCD FIRST STEP         1000
Info: DCD FILE WILL CONTAIN UNIT CELL DATA
Info: XST FILENAME           ../simulation/sim1.xst
Info: XST FREQUENCY          500
Info: NO VELOCITY DCD OUTPUT
Info: NO FORCE DCD OUTPUT
Info: OUTPUT FILENAME        ../simulation/sim1
Info: RESTART FILENAME       ../simulation/sim1.restart
Info: RESTART FREQUENCY      5000
Info: BINARY RESTART FILES WILL BE USED
Info: SWITCHING ACTIVE
Info: SWITCHING ON           10
Info: SWITCHING OFF          12
Info: PAIRLIST DISTANCE      13.5
Info: PAIRLIST SHRINK RATE   0.01
Info: PAIRLIST GROW RATE     0.01
Info: PAIRLIST TRIGGER       0.3
Info: PAIRLISTS PER CYCLE    2
Info: PAIRLISTS ENABLED
Info: MARGIN                 0.48
Info: HYDROGEN GROUP CUTOFF  2.5
Info: PATCH DIMENSION        16.48
Info: ENERGY OUTPUT STEPS    500
Info: CROSSTERM ENERGY INCLUDED IN DIHEDRAL
Info: TIMING OUTPUT STEPS    5000
Info: PRESSURE OUTPUT STEPS  500
Info: LANGEVIN DYNAMICS ACTIVE
Info: LANGEVIN TEMPERATURE   300
Info: LANGEVIN DAMPING COEFFICIENT IS 5 INVERSE PS
Info: LANGEVIN DYNAMICS NOT APPLIED TO HYDROGENS
Info: BERENDSEN PRESSURE COUPLING ACTIVE
Info:     TARGET PRESSURE IS 1 BAR
Info:     COMPRESSIBILITY ESTIMATE IS 4.57e-05 BAR^(-1)
Info:     RELAXATION TIME IS 100 FS
Info:     APPLIED EVERY 2 STEPS
Info:     PRESSURE CONTROL IS GROUP-BASED
Info:       CELL FLUCTUATION IS ISOTROPIC
Info: PARTICLE MESH EWALD (PME) ACTIVE
Info: PME TOLERANCE               1e-06
Info: PME EWALD COEFFICIENT       0.257952
Info: PME INTERPOLATION ORDER     4
Info: PME GRID DIMENSIONS         28 24 24
Info: PME MAXIMUM GRID SPACING    1
Info: FULL ELECTROSTATIC EVALUATION FREQUENCY      2
Info: USING VERLET I (r-RESPA) MTS SCHEME.
Info: C1 SPLITTING OF LONG RANGE ELECTROSTATICS
Info: PLACING ATOMS IN PATCHES BY HYDROGEN GROUPS
Info: RIGID BONDS TO HYDROGEN : ALL
Info:         ERROR TOLERANCE : 1e-05
Info:          MAX ITERATIONS : 100
Info: RIGID WATER USING SETTLE ALGORITHM
Info: RANDOM NUMBER SEED     1414057368
Info: USE HYDROGEN BONDS?    NO
Info: Using AMBER format force field!
Info: AMBER PARM FILE        ../build/mol-solv.top
Info: COORDINATE PDB         ../simulation/sim0.coor
Info: Exclusions in PARM file will be ignored!
Info: SCNB (VDW SCALING)     2
Info: USING ARITHMETIC MEAN TO COMBINE L-J SIGMA PARAMETERS
Info: SUMMARY OF PARAMETERS:
Info: 14 BONDS
Info: 23 ANGLES
Info: 14 DIHEDRAL
Info: 0 IMPROPER
Info: 0 CROSSTERM
Info: 0 VDW
Info: 55 VDW_PAIRS
Info: 0 NBTHOLE_PAIRS
Info: STRUCTURE SUMMARY:
Info: 1103 ATOMS
Info: 1102 BONDS
Info: 39 ANGLES
Info: 62 DIHEDRALS
Info: 0 IMPROPERS
Info: 0 CROSSTERMS
Info: 0 EXCLUSIONS
Info: 1092 RIGID BONDS
Info: 2217 DEGREES OF FREEDOM
Info: 371 HYDROGEN GROUPS
Info: 4 ATOMS IN LARGEST HYDROGEN GROUP
Info: 371 MIGRATION GROUPS
Info: 4 ATOMS IN LARGEST MIGRATION GROUP
Info: TOTAL MASS = 6645.94 amu
Info: TOTAL CHARGE = 4.09782e-08 e
Info: MASS DENSITY = 0.867782 g/cm^3
Info: ATOM DENSITY = 0.0867302 atoms/A^3
Info: REMOVING COM VELOCITY 0.231701 -0.169432 -0.00207979
Info: NONBONDED TABLE R-SQUARED SPACING: 0.0625
Info: NONBONDED TABLE SIZE: 769 POINTS
TCL: Running for 10000 steps
ETITLE: TS BOND ANGLE DIHED IMPRP ELECT VDW BOUNDARY MISC KINETIC TOTAL TEMP POTENTIAL TOTAL3 TEMPAVG PRESSURE GPRESSURE VOLUME PRESSAVG GPRESSAVG
ENERGY: 0 3.3730 10.7073 7.0175 0.0000 -4035.4491 518.7740 0.0000 0.0000 655.4509 -2840.1264 297.5533 -3495.5772 -2838.6419 297.5533 -1335.3605 -1300.3890 12717.5929 -1335.3605 -1300.3890
ENERGY: 2000 3.8659 7.5713 5.5076 0.0000 -4175.2082 531.4517 0.0000 0.0000 649.8653 -2976.9463 295.0177 -3626.8117 -2975.9422 294.3275 -85.7425 -47.1358 10915.0375 -29.7778 -29.5711
ENERGY: 4000 2.9128 5.6794 7.1273 0.0000 -4025.8387 510.5382 0.0000 0.0000 678.5154 -2821.0656 308.0239 -3499.5811 -2818.1424 307.3185 34.8909 60.1170 11344.3568 40.5737 38.0816
ENERGY: 6000 3.1074 6.5228 5.8282 0.0000 -4155.0955 536.7174 0.0000 0.0000 657.8731 -2945.0466 298.6529 -3602.9197 -2944.6135 303.9991 -265.2946 -197.3001 11167.3257 39.9192 39.2219
ENERGY: 8000 4.9108 8.9149 7.2596 0.0000 -4187.7804 534.2359 0.0000 0.0000 664.9808 -2967.4784 301.8796 -3632.4592 -2966.7102 291.4432 -615.0007 -532.2736 11168.6472 -7.7270 -7.3387
ENERGY: 10000 2.2440 6.8634 5.8064 0.0000 -4049.1493 516.7733 0.0000 0.0000 642.2076 -2875.2546 291.5413 -3517.4623 -2870.3402 296.9690 264.4410 275.3165 11204.9792 -0.7476 -1.0440
